Version 4
SHEET 1 2068 700
WIRE -192 0 -304 0
WIRE -96 0 -192 0
WIRE 80 0 -96 0
WIRE 240 0 80 0
WIRE 304 0 240 0
WIRE 416 0 368 0
WIRE 1360 0 1312 0
WIRE 1488 0 1424 0
WIRE 1648 0 1488 0
WIRE 1824 0 1648 0
WIRE 1920 0 1824 0
WIRE 2032 0 1920 0
WIRE -304 16 -304 0
WIRE -192 16 -192 0
WIRE -96 16 -96 0
WIRE 1824 16 1824 0
WIRE 1920 16 1920 0
WIRE 2032 16 2032 0
WIRE 80 48 80 0
WIRE 240 48 240 0
WIRE 1488 48 1488 0
WIRE 1648 48 1648 0
WIRE -304 112 -304 96
WIRE -192 112 -192 80
WIRE -96 112 -96 96
WIRE -16 112 -96 112
WIRE 416 112 416 0
WIRE 416 112 336 112
WIRE 1312 112 1312 0
WIRE 1392 112 1312 112
WIRE 1824 112 1824 96
WIRE 1824 112 1744 112
WIRE 1920 112 1920 80
WIRE 2032 112 2032 96
WIRE 688 128 528 128
WIRE 800 128 688 128
WIRE 1200 128 800 128
WIRE 416 144 416 112
WIRE 688 144 688 128
WIRE 800 144 800 128
WIRE 1312 144 1312 112
WIRE 528 160 528 128
WIRE 1200 160 1200 128
WIRE -144 176 -160 176
WIRE -16 176 -64 176
WIRE 368 176 336 176
WIRE 1392 176 1360 176
WIRE 1792 176 1744 176
WIRE 1888 176 1872 176
WIRE 368 240 368 176
WIRE 368 240 336 240
WIRE 480 240 368 240
WIRE 688 240 688 208
WIRE 800 240 800 224
WIRE 1360 240 1360 176
WIRE 1360 240 1248 240
WIRE 1392 240 1360 240
WIRE 416 304 416 208
WIRE 416 304 336 304
WIRE 528 304 528 256
WIRE 528 304 416 304
WIRE 864 304 528 304
WIRE 1200 304 1200 256
WIRE 1200 304 1040 304
WIRE 1312 304 1312 208
WIRE 1312 304 1200 304
WIRE 1392 304 1312 304
WIRE 864 336 864 304
WIRE 528 352 528 304
WIRE 1200 352 1200 304
WIRE -160 368 -176 368
WIRE -16 368 -80 368
WIRE 368 368 336 368
WIRE 1392 368 1360 368
WIRE 1808 368 1744 368
WIRE 1904 368 1888 368
WIRE 1040 416 1040 304
WIRE 1040 416 864 416
WIRE 368 432 368 368
WIRE 368 432 336 432
WIRE 480 432 368 432
WIRE 1360 432 1360 368
WIRE 1360 432 1248 432
WIRE 1392 432 1360 432
WIRE 528 464 528 448
WIRE 1200 464 1200 448
WIRE 80 512 80 496
WIRE 240 512 240 496
WIRE 1488 512 1488 496
WIRE 1648 512 1648 496
FLAG -304 112 0
FLAG 240 512 0
FLAG 80 512 0
FLAG -160 176 0
FLAG -176 368 0
FLAG -192 112 0
FLAG 688 240 0
FLAG 528 464 0
FLAG 800 240 0
FLAG 800 128 IN
FLAG 2032 112 0
FLAG 1488 512 0
FLAG 1648 512 0
FLAG 1888 176 0
FLAG 1904 368 0
FLAG 1920 112 0
FLAG 1200 464 0
FLAG 1040 304 OUT
SYMBOL PowerProducts\\LT1160 160 256 R0
SYMATTR InstName U1
SYMBOL voltage -304 0 R0
WINDOW 123 0 0 Left 2
WINDOW 39 0 0 Left 2
SYMATTR InstName V1
SYMATTR Value 12
SYMBOL res -112 0 R0
SYMATTR InstName R1
SYMATTR Value 10K
SYMBOL voltage -48 176 R90
WINDOW 0 -32 56 VBottom 2
WINDOW 3 32 56 VTop 2
WINDOW 123 60 56 VTop 2
SYMATTR InstName V2
SYMATTR Value PULSE(0 3.3 0
SYMATTR Value2 1n 1n 1u 10u)
SYMBOL voltage -64 368 R90
WINDOW 0 -32 56 VBottom 2
WINDOW 3 32 56 VTop 2
WINDOW 123 60 56 VTop 2
SYMATTR InstName V3
SYMATTR Value PULSE(0 3.3 5u
SYMATTR Value2 1n 1n 1u 10u)
SYMBOL nmos 480 160 R0
SYMATTR InstName Q1
SYMATTR Value 200N15N
SYMBOL nmos 480 352 R0
SYMATTR InstName Q2
SYMATTR Value 200N15N
SYMBOL cap -208 16 R0
SYMATTR InstName C1
SYMATTR Value 10µ
SYMBOL diode 304 16 R270
WINDOW 0 32 32 VTop 2
WINDOW 3 0 32 VBottom 2
SYMATTR InstName D1
SYMATTR Value 1N4001
SYMBOL cap 400 144 R0
SYMATTR InstName C2
SYMATTR Value 1µ
SYMBOL voltage 800 128 R0
WINDOW 123 0 0 Left 2
WINDOW 39 0 0 Left 2
SYMATTR InstName V4
SYMATTR Value 24
SYMBOL cap 672 144 R0
SYMATTR InstName C3
SYMATTR Value 100µ
SYMBOL PowerProducts\\LT1160 1568 256 M0
SYMATTR InstName U2
SYMBOL voltage 2032 0 M0
WINDOW 123 0 0 Left 2
WINDOW 39 0 0 Left 2
SYMATTR InstName V5
SYMATTR Value 12
SYMBOL res 1840 0 M0
SYMATTR InstName R2
SYMATTR Value 10K
SYMBOL voltage 1776 176 M90
WINDOW 0 -32 56 VBottom 2
WINDOW 3 32 56 VTop 2
WINDOW 123 60 56 VTop 2
SYMATTR InstName V6
SYMATTR Value PULSE(0 3.3 0
SYMATTR Value2 1n 1n 1u 10u)
SYMBOL voltage 1792 368 M90
WINDOW 0 -32 56 VBottom 2
WINDOW 3 32 56 VTop 2
WINDOW 123 60 56 VTop 2
SYMATTR InstName V7
SYMATTR Value PULSE(0 3.3 5u
SYMATTR Value2 1n 1n 1u 10u)
SYMBOL nmos 1248 160 M0
SYMATTR InstName Q3
SYMATTR Value 200N15N
SYMBOL nmos 1248 352 M0
SYMATTR InstName Q4
SYMATTR Value 200N15N
SYMBOL cap 1936 16 M0
SYMATTR InstName C4
SYMATTR Value 10µ
SYMBOL diode 1424 16 M270
WINDOW 0 32 32 VTop 2
WINDOW 3 0 32 VBottom 2
SYMATTR InstName D2
SYMATTR Value 1N4001
SYMBOL cap 1328 144 M0
SYMATTR InstName C5
SYMATTR Value 1µ
SYMBOL ind 880 320 M0
WINDOW 39 36 108 Left 2
SYMATTR SpiceLine Rser=.16
SYMATTR InstName Load1
SYMATTR Value .7m
TEXT -240 632 Left 2 !.tran 1m startup
TEXT 256 -40 Bottom 2 ;LT1160 - Full-Bridge N-Channel Power MOSFET Drivers\n60V Max Full-bridge DC Motor Driver
